
* Circuit Extracted by Tanner Research's L-Edit Version 15.00 / Extract Version 15.00 ;CMOSNuit Extracted by Tanner Research's L-Edit Version 15.00 / Extract Version 15.00 
* TDB File:  C:\Documents and Settings\Owner\Desktop\final\Layout_without_pads.tdb
* Cell:  Cell0	Version 1.87
* Extract Definition File:  mhp_n05.ext
* Extract Date and Time:  02/11/2022 - 01:15

* Tech: AMI_C5N
* LOT: T22Y_TT (typical)                  WAF: 3104
* Temperature_parameters=Optimized 
.MODEL CMOSN NMOS (                                LEVEL   = 7
+VERSION = 3.1            TNOM    = 27             TOX     = 1.39E-8
+XJ      = 1.5E-7         NCH     = 1.7E17         VTH0    = 0.6696061
+K1      = 0.8351612      K2      = -0.0839158     K3      = 23.1023856
+K3B     = -7.6841108     W0      = 1E-8           NLX     = 1E-9
+DVT0W   = 0              DVT1W   = 0              DVT2W   = 0
+DVT0    = 2.9047241      DVT1    = 0.4302695      DVT2    = -0.134857
+U0      = 458.439679     UA      = 1E-13          UB      = 1.485499E-18
+UC      = 1.629939E-11   VSAT    = 1.643993E5     A0      = 0.6103537
+AGS     = 0.1194608      B0      = 2.674756E-6    B1      = 5E-6
+KETA    = -2.640681E-3   A1      = 8.219585E-5    A2      = 0.3564792
+RDSW    = 1.387108E3     PRWG    = 0.0299916      PRWB    = 0.0363981
+WR      = 1              WINT    = 2.472348E-7    LINT    = 3.597605E-8
+XL      = 0              XW      = 0              DWG     = -1.287163E-8
+DWB     = 5.306586E-8    VOFF    = 0              NFACTOR = 0.8365585
+CIT     = 0              CDSC    = 2.4E-4         CDSCD   = 0
+CDSCB   = 0              ETA0    = 0.0246738      ETAB    = -1.406123E-3
+DSUB    = 0.2543458      PCLM    = 2.5945188      PDIBLC1 = -0.4282336
+PDIBLC2 = 2.311743E-3    PDIBLCB = -0.0272914     DROUT   = 0.7283566
+PSCBE1  = 5.598623E8     PSCBE2  = 5.461645E-5    PVAG    = 0
+DELTA   = 0.01           RSH     = 81.8           MOBMOD  = 1
+PRT     = 8.621          UTE     = -1             KT1     = -0.2501
+KT1L    = -2.58E-9       KT2     = 0              UA1     = 5.4E-10
+UB1     = -4.8E-19       UC1     = -7.5E-11       AT      = 1E5
+WL      = 0              WLN     = 1              WW      = 0
+WWN     = 1              WWL     = 0              LL      = 0
+LLN     = 1              LW      = 0              LWN     = 1
+LWL     = 0              CAPMOD  = 2              XPART   = 0.5
+CGDO    = 2E-10          CGSO    = 2E-10          CGBO    = 1E-9
+CJ      = 4.197772E-4    PB      = 0.99           MJ      = 0.4515044
+CJSW    = 3.242724E-10   PBSW    = 0.1            MJSW    = 0.1153991
+CJSWG   = 1.64E-10       PBSWG   = 0.1            MJSWG   = 0.1153991
+CF      = 0              PVTH0   = 0.0585501      PRDSW   = 133.285505
+PK2     = -0.0299638     WKETA   = -0.0248758     LKETA   = 1.173187E-3
+AF      = 1              KF      = 0)
*
.MODEL CMOSP PMOS (                                LEVEL   = 7
+VERSION = 3.1            TNOM    = 27             TOX     = 1.39E-8
+XJ      = 1.5E-7         NCH     = 1.7E17         VTH0    = -0.9214347
+K1      = 0.5553722      K2      = 8.763328E-3    K3      = 6.3063558
+K3B     = -0.6487362     W0      = 1.280703E-8    NLX     = 2.593997E-8
+DVT0W   = 0              DVT1W   = 0              DVT2W   = 0
+DVT0    = 2.5131165      DVT1    = 0.5480536      DVT2    = -0.1186489
+U0      = 212.0166131    UA      = 2.807115E-9    UB      = 1E-21
+UC      = -5.82128E-11   VSAT    = 1.713601E5     A0      = 0.8430019
+AGS     = 0.1328608      B0      = 7.117912E-7    B1      = 5E-6
+KETA    = -3.674859E-3   A1      = 4.77502E-5     A2      = 0.3
+RDSW    = 2.837206E3     PRWG    = -0.0363908     PRWB    = -1.016722E-5
+WR      = 1              WINT    = 2.838038E-7    LINT    = 5.528807E-8
+XL      = 0              XW      = 0              DWG     = -1.606385E-8
+DWB     = 2.266386E-8    VOFF    = -0.0558512     NFACTOR = 0.9342488
+CIT     = 0              CDSC    = 2.4E-4         CDSCD   = 0
+CDSCB   = 0              ETA0    = 0.3251882      ETAB    = -0.0580325
+DSUB    = 1              PCLM    = 2.2409567      PDIBLC1 = 0.0411445
+PDIBLC2 = 3.355575E-3    PDIBLCB = -0.0551797     DROUT   = 0.2036901
+PSCBE1  = 6.44809E9      PSCBE2  = 6.300848E-10   PVAG    = 0
+DELTA   = 0.01           RSH     = 101.6          MOBMOD  = 1
+PRT     = 59.494         UTE     = -1             KT1     = -0.2942
+KT1L    = 1.68E-9        KT2     = 0              UA1     = 4.5E-9
+UB1     = -6.3E-18       UC1     = -1E-10         AT      = 1E3
+WL      = 0              WLN     = 1              WW      = 0
+WWN     = 1              WWL     = 0              LL      = 0
+LLN     = 1              LW      = 0              LWN     = 1
+LWL     = 0              CAPMOD  = 2              XPART   = 0.5
+CGDO    = 2.9E-10        CGSO    = 2.9E-10        CGBO    = 1E-9
+CJ      = 7.235528E-4    PB      = 0.9527355      MJ      = 0.4955293
+CJSW    = 2.692786E-10   PBSW    = 0.99           MJSW    = 0.2958392
+CJSWG   = 6.4E-11        PBSWG   = 0.99           MJSWG   = 0.2958392
+CF      = 0              PVTH0   = 5.98016E-3     PRDSW   = 14.8598424
+PK2     = 3.73981E-3     WKETA   = 5.292165E-3    LKETA   = -4.205905E-3 
+AF      = 1              KF      = 0)
*

* Warning:  Layers with Unassigned FRINGE Capacitance.
*   <Pad Comment>

* NODE NAME ALIASES
*       10 = UAC34/U222/B (79.5 , 1259.5)
*       10 = UAC111/U223/vout (-1480 , 1258.5)
*       10 = UAC111/An (-1481 , 1302.5)
*       10 = UAC34/U206/A (136.5 , 1264.5)
*       10 = UAC34/A6 (138 , 1294)
*       11 = UAC34/U229/Vin (111 , 1217)
*       11 = UAC34/U220/OUT (109.5 , 1248)
*       12 = UAC111/U228/vout (-1388 , 1258.5)
*       12 = UAC111/D (-1351.5 , 1254)
*       12 = UAC111/Dn (-1389.5 , 1300.5)
*       12 = UAC31/D (-1205 , 1256)
*       12 = UAC31/U219/B (-1140.5 , 1259.5)
*       12 = UAC31/D6 (-1141 , 1286.5)
*       12 = UAC31/U220/B (-969 , 1259.5)
*       12 = UAC32/D (-841.5 , 1256)
*       12 = UAC32/U219/B (-777 , 1259.5)
*       12 = UAC32/D6 (-777.5 , 1286.5)
*       12 = UAC32/U220/B (-605.5 , 1259.5)
*       12 = UAC33/D (-477 , 1256)
*       12 = UAC33/U219/B (-412.5 , 1259.5)
*       12 = UAC33/D6 (-413 , 1286.5)
*       12 = UAC33/U220/B (-241 , 1259.5)
*       12 = UAC34/D (-113.5 , 1256)
*       12 = UAC34/U219/B (-49 , 1259.5)
*       12 = UAC34/D6 (-49.5 , 1286.5)
*       12 = UAC34/U220/B (122.5 , 1259.5)
*       19 = UAC34/U219/OUT (-62 , 1248)
*       19 = UAC34/U262/vin (-12 , 1260)
*       20 = UAC34/U262/vout (-26.5 , 1261.5)
*       20 = UAC34/U222/A (6 , 1264.5)
*       27 = UAC33/U206/Vout (-191.5 , 1271.5)
*       27 = UAC33/U236/A (-168.5 , 1215.5)
*       27 = UAC33/U235/B (-186.5 , 1215.5)
*       35 = UAC33/U218/B (-277.5 , 1215.5)
*       35 = UAC33/U229/Vout (-238.5 , 1217)
*       39 = UAC33/U219/OUT (-425.5 , 1248)
*       39 = UAC33/U262/vin (-375.5 , 1260)
*       40 = UAC33/U222/A (-357.5 , 1264.5)
*       40 = UAC33/U262/vout (-390 , 1261.5)
*       56 = UAC32/U262/vout (-754.5 , 1261.5)
*       56 = UAC32/U222/A (-722 , 1264.5)
*       58 = UAC32/U219/OUT (-790 , 1248)
*       58 = UAC32/U262/vin (-740 , 1260)
*       65 = UAC111/U220/B (-1387 , 1169)
*       65 = UAC111/U230/vout (-1367 , 1213)
*       65 = UAC111/Fn (-1351 , 1237)
*       65 = UAC31/F (-1205 , 1268)
*       65 = UAC32/F (-841.5 , 1268)
*       65 = UAC31/U206/B (-881.5 , 1259.5)
*       65 = UAC31/F6 (-877.5 , 1288)
*       65 = UAC32/U206/B (-518 , 1259.5)
*       65 = UAC32/F6 (-514 , 1288)
*       65 = UAC33/F (-477 , 1268)
*       65 = UAC34/F (-113.5 , 1268)
*       65 = UAC33/U206/B (-153.5 , 1259.5)
*       65 = UAC33/F6 (-149.5 , 1288)
*       65 = UAC34/U206/B (210 , 1259.5)
*       65 = UAC34/F6 (214 , 1288)
*       71 = UAC31/U238/B (-1141 , 1215.5)
*       71 = UAC31/U220/A (-995.5 , 1259.5)
*       71 = UAC31/C6 (-995.5 , 1291.5)
*       71 = UAC32/U254/Vout (-673 , 1173)
*       71 = UAC32/P (-672 , 1146)
*       71 = UAC31/U236/B (-870 , 1215.5)
*       71 = UAC31/C (-829.5 , 1242.5)
*       77 = UAC31/U219/OUT (-1153.5 , 1248)
*       77 = UAC31/U262/vin (-1103.5 , 1260)
*       78 = UAC31/U262/vout (-1118 , 1261.5)
*       78 = UAC31/U222/A (-1085.5 , 1264.5)
*       80 = UAC111/U228/vin (-1416.5 , 1259.5)
*       80 = UAC111/U227/O/P (-1432 , 1267.5)
*       82 = UAC111/U223/vin (-1508.5 , 1259.5)
*       82 = UAC111/U222/OUT (-1539 , 1248)
*       84 = UAC34/U246/Vin (203 , 1173)
*       84 = UAC34/U236/OUT (208.5 , 1204)
*       85 = UAC34/U253/C (125 , 1161.5)
*       85 = UAC34/U247/Vout (169 , 1173)
*       86 = UAC34/U247/Vin (155 , 1173)
*       86 = UAC34/U235/OUT (164 , 1204)
*       87 = UAC34/U236/A (195 , 1215.5)
*       87 = UAC34/U235/B (177 , 1215.5)
*       87 = UAC34/U206/Vout (172 , 1271.5)
*       88 = UAC34/U236/VDD (200.5 , 1237)
*       88 = UAC34/U235/VDD (156 , 1237)
*       88 = UAC34/U229/Vdd (119 , 1237.5)
*       88 = UAC34/U245/Vdd (-15 , 1237.5)
*       88 = UAC34/U238/VDD (-70.5 , 1237)
*       88 = UAC34/U218/VDD (9 , 1234.5)
*       88 = UAC34/U220/VDD (101.5 , 1281)
*       88 = UAC33/U238/VDD (-434 , 1237)
*       88 = UAC33/U245/Vdd (-378.5 , 1237.5)
*       88 = UAC33/U218/VDD (-354.5 , 1234.5)
*       88 = UAC33/U235/VDD (-207.5 , 1237)
*       88 = UAC33/U229/Vdd (-244.5 , 1237.5)
*       88 = UAC33/U222/VDD (-361 , 1278.5)
*       88 = UAC32/U238/VDD (-798.5 , 1237)
*       88 = UAC32/U245/Vdd (-743 , 1237.5)
*       88 = UAC32/U218/VDD (-719 , 1234.5)
*       88 = UAC32/U229/Vdd (-609 , 1237.5)
*       88 = UAC32/U236/VDD (-527.5 , 1237)
*       88 = UAC32/U235/VDD (-572 , 1237)
*       88 = UAC32/U206/VDD (-591.002 , 1278.5)
*       88 = UAC31/U245/Vdd (-1106.5 , 1237.5)
*       88 = UAC31/U238/VDD (-1162 , 1237)
*       88 = UAC31/U218/VDD (-1082.5 , 1234.5)
*       88 = UAC31/U235/VDD (-935.5 , 1237)
*       88 = UAC31/U229/Vdd (-972.5 , 1237.5)
*       88 = UAC31/U206/VDD (-958.5 , 1278.5)
*       88 = UAC31/U220/VDD (-990 , 1281)
*       88 = UAC111/U225/VDD (-1518 , 1235.5)
*       88 = UAC111/U224/Vdd (-1554 , 1236.5)
*       88 = UAC111/U223/Vdd (-1499 , 1282)
*       88 = UAC111/U222/VDD (-1547 , 1281)
*       88 = UAC111/U231/VDD (-1539 , 1190.5)
*       88 = UAC111/U220/VDD (-1464 , 1188)
*       88 = UAC111/U232/Vdd (-1491 , 1191.5)
*       88 = UAC111/U229/VDD (-1434 , 1235.5)
*       88 = UAC111/U226/Vdd (-1470 , 1236.5)
*       88 = UAC111/Fn (-1591 , 1225.5)
*       88 = UAC111/U229/B (-1413 , 1214)
*       88 = UAC111/U228/Vdd (-1407 , 1282)
*       88 = UAC111/U227/VDD (-1425.5 , 1279.5)
*       88 = UAC111/F (-1409.5 , 1299.5)
*       88 = UAC111/U230/Vdd (-1386 , 1236.5)
*       88 = UAC31/U262/VDD (-1125 , 1282)
*       88 = UAC31/U219/VDD (-1161.5 , 1281)
*       88 = UAC31/U222/VDD (-1089 , 1278.5)
*       88 = UAC32/U219/VDD (-798 , 1281)
*       88 = UAC31/U236/VDD (-891 , 1237)
*       88 = UAC31/U254/Vdd (-1042.5 , 1193.5)
*       88 = UAC31/U253/VDD (-956.5 , 1191.5)
*       88 = UAC31/U247/Vdd (-928.5 , 1193.5)
*       88 = UAC31/U246/Vdd (-880.5 , 1193.5)
*       88 = UAC32/U262/VDD (-761.5 , 1282)
*       88 = UAC32/U222/VDD (-725.5 , 1278.5)
*       88 = UAC32/U220/VDD (-626.5 , 1281)
*       88 = UAC32/U254/Vdd (-679 , 1193.5)
*       88 = UAC32/U253/VDD (-593 , 1191.5)
*       88 = UAC32/U247/Vdd (-565 , 1193.5)
*       88 = UAC32/U246/Vdd (-517 , 1193.5)
*       88 = UAC33/U262/VDD (-397 , 1282)
*       88 = UAC33/U219/VDD (-433.5 , 1281)
*       88 = UAC33/U206/VDD (-230.5 , 1278.5)
*       88 = UAC33/U220/VDD (-262 , 1281)
*       88 = UAC33/U236/VDD (-163 , 1237)
*       88 = UAC33/U254/Vdd (-314.5 , 1193.5)
*       88 = UAC33/U253/VDD (-228.5 , 1191.5)
*       88 = UAC33/U247/Vdd (-200.5 , 1193.5)
*       88 = UAC33/U246/Vdd (-152.5 , 1193.5)
*       88 = UAC34/U262/VDD (-33.5 , 1282)
*       88 = UAC34/U222/VDD (2.5 , 1278.5)
*       88 = UAC34/U219/VDD (-70 , 1281)
*       88 = UAC34/U206/VDD (133 , 1278.5)
*       88 = UAC34/U254/Vdd (49 , 1193.5)
*       88 = UAC34/U253/VDD (135 , 1191.5)
*       88 = UAC34/U247/Vdd (163 , 1193.5)
*       88 = UAC38/U245/Vdd (-15.5 , 1075)
*       88 = UAC38/U238/VDD (-71 , 1074.5)
*       88 = UAC38/U218/VDD (8.5 , 1072)
*       88 = UAC38/U236/VDD (200 , 1074.5)
*       88 = UAC38/U235/VDD (155.5 , 1074.5)
*       88 = UAC38/U229/Vdd (118.5 , 1075)
*       88 = UAC38/U220/VDD (101 , 1118.5)
*       88 = UAC37/U238/VDD (-434.5 , 1074.5)
*       88 = UAC37/U245/Vdd (-379 , 1075)
*       88 = UAC37/U218/VDD (-355 , 1072)
*       88 = UAC37/U235/VDD (-208 , 1074.5)
*       88 = UAC37/U229/Vdd (-245 , 1075)
*       88 = UAC37/U222/VDD (-361.5 , 1116)
*       88 = UAC36/U254/Vdd (-679.5 , 1031)
*       88 = UAC36/U253/VDD (-593.5 , 1029)
*       88 = UAC36/U247/Vdd (-565.5 , 1031)
*       88 = UAC36/U246/Vdd (-517.5 , 1031)
*       88 = UAC36/U238/VDD (-799 , 1074.5)
*       88 = UAC36/U245/Vdd (-743.5 , 1075)
*       88 = UAC36/U218/VDD (-719.5 , 1072)
*       88 = UAC36/U229/Vdd (-609.5 , 1075)
*       88 = UAC36/U236/VDD (-528 , 1074.5)
*       88 = UAC36/U235/VDD (-572.5 , 1074.5)
*       88 = UAC36/U206/VDD (-591.002 , 1116)
*       88 = UAC36/U219/VDD (-798.5 , 1118.5)
*       88 = UAC35/U246/Vdd (-881 , 1031)
*       88 = UAC35/U236/VDD (-891.5 , 1074.5)
*       88 = UAC35/U235/VDD (-936 , 1074.5)
*       88 = UAC35/U229/Vdd (-973 , 1075)
*       88 = UAC35/U245/Vdd (-1107 , 1075)
*       88 = UAC35/U238/VDD (-1162.5 , 1074.5)
*       88 = UAC35/U218/VDD (-1083 , 1072)
*       88 = UAC35/U206/VDD (-959 , 1116)
*       88 = UAC35/U220/VDD (-990.5 , 1118.5)
*       88 = UAC78/U245/Vdd (-1471 , 1075)
*       88 = UAC78/U218/VDD (-1447 , 1072)
*       88 = UAC78/U238/VDD (-1526.5 , 1074.5)
*       88 = UAC78/U235/VDD (-1300 , 1074.5)
*       88 = UAC78/U229/Vdd (-1337 , 1075)
*       88 = UAC112/U231/VDD (-1904.5 , 1028)
*       88 = UAC112/U224/Vdd (-1919.5 , 1074)
*       88 = UAC112/U222/VDD (-1912.5 , 1118.5)
*       88 = UAC112/U220/VDD (-1829.5 , 1025.5)
*       88 = UAC112/U232/Vdd (-1856.5 , 1029)
*       88 = UAC112/U229/VDD (-1799.5 , 1073)
*       88 = UAC112/U226/Vdd (-1835.5 , 1074)
*       88 = UAC112/U225/VDD (-1883.5 , 1073)
*       88 = UAC112/U223/Vdd (-1864.5 , 1119.5)
*       88 = UAC112/U230/Vdd (-1751.5 , 1074)
*       88 = UAC112/U228/Vdd (-1772.5 , 1119.5)
*       88 = UAC112/U227/VDD (-1791 , 1117)
*       88 = UAC78/U219/VDD (-1526 , 1118.5)
*       88 = UAC78/U262/VDD (-1489.5 , 1119.5)
*       88 = UAC78/U222/VDD (-1453.5 , 1116)
*       88 = UAC78/U206/VDD (-1323 , 1116)
*       88 = UAC78/U220/VDD (-1354.5 , 1118.5)
*       88 = UAC78/U254/Vdd (-1407 , 1031)
*       88 = UAC78/U253/VDD (-1321 , 1029)
*       88 = UAC78/U247/Vdd (-1293 , 1031)
*       88 = UAC78/U246/Vdd (-1245 , 1031)
*       88 = UAC78/U236/VDD (-1255.5 , 1074.5)
*       88 = UAC35/U262/VDD (-1125.5 , 1119.5)
*       88 = UAC35/U219/VDD (-1162 , 1118.5)
*       88 = UAC35/U222/VDD (-1089.5 , 1116)
*       88 = UAC35/U254/Vdd (-1043 , 1031)
*       88 = UAC35/U253/VDD (-957 , 1029)
*       88 = UAC35/U247/Vdd (-929 , 1031)
*       88 = UAC36/U262/VDD (-762 , 1119.5)
*       88 = UAC36/U222/VDD (-726 , 1116)
*       88 = UAC36/U220/VDD (-627 , 1118.5)
*       88 = UAC37/U262/VDD (-397.5 , 1119.5)
*       88 = UAC37/U219/VDD (-434 , 1118.5)
*       88 = UAC37/U206/VDD (-231 , 1116)
*       88 = UAC37/U220/VDD (-262.5 , 1118.5)
*       88 = UAC37/U254/Vdd (-315 , 1031)
*       88 = UAC37/U253/VDD (-229 , 1029)
*       88 = UAC37/U247/Vdd (-201 , 1031)
*       88 = UAC37/U246/Vdd (-153 , 1031)
*       88 = UAC37/U236/VDD (-163.5 , 1074.5)
*       88 = UAC38/U262/VDD (-34 , 1119.5)
*       88 = UAC38/U222/VDD (2 , 1116)
*       88 = UAC38/U219/VDD (-70.5 , 1118.5)
*       88 = UAC38/U206/VDD (132.5 , 1116)
*       88 = UAC42/U220/VDD (100.5 , 956)
*       88 = UAC41/U222/VDD (-362 , 953.5)
*       88 = UAC40/U206/VDD (-591.002 , 953.5)
*       88 = UAC39/U206/VDD (-959.5 , 953.5)
*       88 = UAC39/U220/VDD (-991 , 956)
*       88 = UAC80/U220/VDD (-1718.5 , 956)
*       88 = UAC80/U262/VDD (-1853.5 , 957)
*       88 = UAC80/U222/VDD (-1817.5 , 953.5)
*       88 = UAC80/U219/VDD (-1890 , 956)
*       88 = UAC114/U223/Vdd (-2241.5 , 957)
*       88 = UAC114/U222/VDD (-2289.5 , 956)
*       88 = UAC114/U220/VDD (-2206.5 , 863)
*       88 = UAC114/U232/Vdd (-2233.5 , 866.5)
*       88 = UAC114/U231/VDD (-2281.5 , 865.5)
*       88 = UAC114/U224/Vdd (-2296.5 , 911.5)
*       88 = UAC114/U226/Vdd (-2212.5 , 911.5)
*       88 = UAC114/U225/VDD (-2260.5 , 910.5)
*       88 = UAC114/U230/Vdd (-2128.5 , 911.5)
*       88 = UAC114/U229/VDD (-2176.5 , 910.5)
*       88 = UAC114/U228/Vdd (-2149.5 , 957)
*       88 = UAC114/U227/VDD (-2168 , 954.5)
*       88 = UAC80/U206/VDD (-1687 , 953.5)
*       88 = UAC80/U254/Vdd (-1771 , 868.5)
*       88 = UAC80/U253/VDD (-1685 , 866.5)
*       88 = UAC80/U247/Vdd (-1657 , 868.5)
*       88 = UAC80/U246/Vdd (-1609 , 868.5)
*       88 = UAC80/U245/Vdd (-1835 , 912.5)
*       88 = UAC80/U238/VDD (-1890.5 , 912)
*       88 = UAC80/U218/VDD (-1811 , 909.5)
*       88 = UAC80/U229/Vdd (-1701 , 912.5)
*       88 = UAC80/U236/VDD (-1619.5 , 912)
*       88 = UAC80/U235/VDD (-1664 , 912)
*       88 = UAC79/U219/VDD (-1526.5 , 956)
*       88 = UAC79/U262/VDD (-1490 , 957)
*       88 = UAC79/U222/VDD (-1454 , 953.5)
*       88 = UAC79/U206/VDD (-1323.5 , 953.5)
*       88 = UAC79/U220/VDD (-1355 , 956)
*       88 = UAC79/U245/Vdd (-1471.5 , 912.5)
*       88 = UAC79/U218/VDD (-1447.5 , 909.5)
*       88 = UAC79/U238/VDD (-1527 , 912)
*       88 = UAC79/U235/VDD (-1300.5 , 912)
*       88 = UAC79/U229/Vdd (-1337.5 , 912.5)
*       88 = UAC79/U254/Vdd (-1407.5 , 868.5)
*       88 = UAC79/U253/VDD (-1321.5 , 866.5)
*       88 = UAC79/U247/Vdd (-1293.5 , 868.5)
*       88 = UAC79/U246/Vdd (-1245.5 , 868.5)
*       88 = UAC79/U236/VDD (-1256 , 912)
*       88 = UAC39/U262/VDD (-1126 , 957)
*       88 = UAC39/U219/VDD (-1162.5 , 956)
*       88 = UAC39/U222/VDD (-1090 , 953.5)
*       88 = UAC39/U246/Vdd (-881.5 , 868.5)
*       88 = UAC39/U254/Vdd (-1043.5 , 868.5)
*       88 = UAC39/U253/VDD (-957.5 , 866.5)
*       88 = UAC39/U247/Vdd (-929.5 , 868.5)
*       88 = UAC39/U245/Vdd (-1107.5 , 912.5)
*       88 = UAC39/U238/VDD (-1163 , 912)
*       88 = UAC39/U218/VDD (-1083.5 , 909.5)
*       88 = UAC39/U236/VDD (-892 , 912)
*       88 = UAC39/U235/VDD (-936.5 , 912)
*       88 = UAC39/U229/Vdd (-973.5 , 912.5)
*       88 = UAC40/U219/VDD (-799 , 956)
*       88 = UAC40/U262/VDD (-762.5 , 957)
*       88 = UAC40/U222/VDD (-726.5 , 953.5)
*       88 = UAC40/U220/VDD (-627.5 , 956)
*       88 = UAC40/U254/Vdd (-680 , 868.5)
*       88 = UAC40/U253/VDD (-594 , 866.5)
*       88 = UAC40/U238/VDD (-799.5 , 912)
*       88 = UAC40/U245/Vdd (-744 , 912.5)
*       88 = UAC40/U218/VDD (-720 , 909.5)
*       88 = UAC40/U229/Vdd (-610 , 912.5)
*       88 = UAC40/U247/Vdd (-566 , 868.5)
*       88 = UAC40/U246/Vdd (-518 , 868.5)
*       88 = UAC40/U236/VDD (-528.5 , 912)
*       88 = UAC40/U235/VDD (-573 , 912)
*       88 = UAC41/U262/VDD (-398 , 957)
*       88 = UAC41/U219/VDD (-434.5 , 956)
*       88 = UAC41/U206/VDD (-231.5 , 953.5)
*       88 = UAC41/U220/VDD (-263 , 956)
*       88 = UAC41/U238/VDD (-435 , 912)
*       88 = UAC41/U245/Vdd (-379.5 , 912.5)
*       88 = UAC41/U218/VDD (-355.5 , 909.5)
*       88 = UAC41/U235/VDD (-208.5 , 912)
*       88 = UAC41/U229/Vdd (-245.5 , 912.5)
*       88 = UAC41/U254/Vdd (-315.5 , 868.5)
*       88 = UAC41/U253/VDD (-229.5 , 866.5)
*       88 = UAC41/U247/Vdd (-201.5 , 868.5)
*       88 = UAC41/U246/Vdd (-153.5 , 868.5)
*       88 = UAC41/U236/VDD (-164 , 912)
*       88 = UAC42/U262/VDD (-34.5 , 957)
*       88 = UAC42/U222/VDD (1.5 , 953.5)
*       88 = UAC42/U219/VDD (-71 , 956)
*       88 = UAC42/U206/VDD (132 , 953.5)
*       88 = UAC42/U254/Vdd (48 , 868.5)
*       88 = UAC42/U253/VDD (134 , 866.5)
*       88 = UAC42/U247/Vdd (162 , 868.5)
*       88 = UAC42/U245/Vdd (-16 , 912.5)
*       88 = UAC42/U238/VDD (-71.5 , 912)
*       88 = UAC42/U218/VDD (8 , 909.5)
*       88 = UAC42/U236/VDD (199.5 , 912)
*       88 = UAC42/U235/VDD (155 , 912)
*       88 = UAC42/U229/Vdd (118 , 912.5)
*       88 = UAC54/U236/VDD (199 , 750.5)
*       88 = UAC54/U235/VDD (154.5 , 750.5)
*       88 = UAC54/U229/Vdd (117.5 , 751)
*       88 = UAC54/U245/Vdd (-16.5 , 751)
*       88 = UAC54/U238/VDD (-72 , 750.5)
*       88 = UAC54/U218/VDD (7.5 , 748)
*       88 = UAC54/U220/VDD (100 , 794.5)
*       88 = UAC53/U238/VDD (-435.5 , 750.5)
*       88 = UAC53/U245/Vdd (-380 , 751)
*       88 = UAC53/U218/VDD (-356 , 748)
*       88 = UAC53/U235/VDD (-209 , 750.5)
*       88 = UAC53/U229/Vdd (-246 , 751)
*       88 = UAC53/U222/VDD (-362.5 , 792)
*       88 = UAC52/U206/VDD (-591.002 , 792)
*       88 = UAC52/U236/VDD (-529 , 750.5)
*       88 = UAC52/U235/VDD (-573.5 , 750.5)
*       88 = UAC52/U238/VDD (-800 , 750.5)
*       88 = UAC52/U245/Vdd (-744.5 , 751)
*       88 = UAC52/U218/VDD (-720.5 , 748)
*       88 = UAC52/U229/Vdd (-610.5 , 751)
*       88 = UAC51/U245/Vdd (-1108 , 751)
*       88 = UAC51/U238/VDD (-1163.5 , 750.5)
*       88 = UAC51/U218/VDD (-1084 , 748)
*       88 = UAC51/U236/VDD (-892.5 , 750.5)
*       88 = UAC51/U235/VDD (-937 , 750.5)
*       88 = UAC51/U229/Vdd (-974 , 751)
*       88 = UAC51/U206/VDD (-960 , 792)
*       88 = UAC81/U238/VDD (-1535 , 750.5)
*       88 = UAC81/U245/Vdd (-1479.5 , 751)
*       88 = UAC81/U218/VDD (-1455.5 , 748)
*       88 = UAC81/U235/VDD (-1308.5 , 750.5)
*       88 = UAC81/U229/Vdd (-1345.5 , 751)
*       88 = UAC81/U222/VDD (-1462 , 792)
*       88 = UAC82/U236/VDD (-1632.5 , 750.5)
*       88 = UAC82/U235/VDD (-1677 , 750.5)
*       88 = UAC82/U238/VDD (-1903.5 , 750.5)
*       88 = UAC82/U245/Vdd (-1848 , 751)
*       88 = UAC82/U218/VDD (-1824 , 748)
*       88 = UAC82/U229/Vdd (-1714 , 751)
*       88 = UAC84/U245/Vdd (-2211.5 , 751)
*       88 = UAC84/U238/VDD (-2267 , 750.5)
*       88 = UAC84/U218/VDD (-2187.5 , 748)
*       88 = UAC84/U236/VDD (-1996 , 750.5)
*       88 = UAC84/U235/VDD (-2040.5 , 750.5)
*       88 = UAC84/U229/Vdd (-2077.5 , 751)
*       88 = UAC116/U230/Vdd (-2499.5 , 750)
*       88 = UAC116/U229/VDD (-2547.5 , 749)
*       88 = UAC116/U226/Vdd (-2583.5 , 750)
*       88 = UAC116/U232/Vdd (-2604.5 , 705)
*       88 = UAC116/U231/VDD (-2652.5 , 704)
*       88 = UAC116/U220/VDD (-2577.5 , 701.5)
*       88 = UAC116/U225/VDD (-2631.5 , 749)
*       88 = UAC116/U224/Vdd (-2667.5 , 750)
*       88 = UAC116/U223/Vdd (-2612.5 , 795.5)
*       88 = UAC116/U222/VDD (-2660.5 , 794.5)
*       88 = UAC116/U228/Vdd (-2520.5 , 795.5)
*       88 = UAC116/U227/VDD (-2539 , 793)
*       88 = UAC84/U262/VDD (-2230 , 795.5)
*       88 = UAC84/U222/VDD (-2194 , 792)
*       88 = UAC84/U219/VDD (-2266.5 , 794.5)
*       88 = UAC84/U220/VDD (-2095 , 794.5)
*       88 = UAC84/U206/VDD (-2063.5 , 792)
*       88 = UAC84/U254/Vdd (-2147.5 , 707)
*       88 = UAC84/U253/VDD (-2061.5 , 705)
*       88 = UAC84/U247/Vdd (-2033.5 , 707)
*       88 = UAC84/U246/Vdd (-1985.5 , 707)
*       88 = UAC82/U219/VDD (-1903 , 794.5)
*       88 = UAC82/U262/VDD (-1866.5 , 795.5)
*       88 = UAC82/U222/VDD (-1830.5 , 792)
*       88 = UAC82/U206/VDD (-1700 , 792)
*       88 = UAC82/U220/VDD (-1731.5 , 794.5)
*       88 = UAC82/U254/Vdd (-1784 , 707)
*       88 = UAC82/U253/VDD (-1698 , 705)
*       88 = UAC82/U247/Vdd (-1670 , 707)
*       88 = UAC82/U246/Vdd (-1622 , 707)
*       88 = UAC81/U262/VDD (-1498 , 795.5)
*       88 = UAC81/U219/VDD (-1534.5 , 794.5)
*       88 = UAC81/U206/VDD (-1331.5 , 792)
*       88 = UAC81/U220/VDD (-1363 , 794.5)
*       88 = UAC81/U254/Vdd (-1415.5 , 707)
*       88 = UAC81/U253/VDD (-1329.5 , 705)
*       88 = UAC81/U247/Vdd (-1301.5 , 707)
*       88 = UAC81/U246/Vdd (-1253.5 , 707)
*       88 = UAC81/U236/VDD (-1264 , 750.5)
*       88 = UAC51/U262/VDD (-1126.5 , 795.5)
*       88 = UAC51/U219/VDD (-1163 , 794.5)
*       88 = UAC51/U222/VDD (-1090.5 , 792)
*       88 = UAC51/U220/VDD (-991.5 , 794.5)
*       88 = UAC51/U254/Vdd (-1044 , 707)
*       88 = UAC51/U253/VDD (-958 , 705)
*       88 = UAC51/U247/Vdd (-930 , 707)
*       88 = UAC51/U246/Vdd (-882 , 707)
*       88 = UAC52/U219/VDD (-799.5 , 794.5)
*       88 = UAC52/U262/VDD (-763 , 795.5)
*       88 = UAC52/U222/VDD (-727 , 792)
*       88 = UAC52/U220/VDD (-628 , 794.5)
*       88 = UAC52/U254/Vdd (-680.5 , 707)
*       88 = UAC52/U253/VDD (-594.5 , 705)
*       88 = UAC52/U247/Vdd (-566.5 , 707)
*       88 = UAC52/U246/Vdd (-518.5 , 707)
*       88 = UAC53/U262/VDD (-398.5 , 795.5)
*       88 = UAC53/U219/VDD (-435 , 794.5)
*       88 = UAC53/U206/VDD (-232 , 792)
*       88 = UAC53/U220/VDD (-263.5 , 794.5)
*       88 = UAC53/U254/Vdd (-316 , 707)
*       88 = UAC53/U253/VDD (-230 , 705)
*       88 = UAC53/U247/Vdd (-202 , 707)
*       88 = UAC53/U246/Vdd (-154 , 707)
*       88 = UAC53/U236/VDD (-164.5 , 750.5)
*       88 = UAC54/U262/VDD (-35 , 795.5)
*       88 = UAC54/U222/VDD (1 , 792)
*       88 = UAC54/U219/VDD (-71.5 , 794.5)
*       88 = UAC54/U206/VDD (131.5 , 792)
*       88 = UAC87/U254/Vdd (-1784 , 544.5)
*       88 = UAC87/U253/VDD (-1698 , 542.5)
*       88 = UAC87/U238/VDD (-1903.5 , 588)
*       88 = UAC87/U245/Vdd (-1848 , 588.5)
*       88 = UAC87/U218/VDD (-1824 , 585.5)
*       88 = UAC87/U229/Vdd (-1714 , 588.5)
*       88 = UAC87/U247/Vdd (-1670 , 544.5)
*       88 = UAC87/U246/Vdd (-1622 , 544.5)
*       88 = UAC87/U236/VDD (-1632.5 , 588)
*       88 = UAC87/U235/VDD (-1677 , 588)
*       88 = UAC118/U231/VDD (-3018.5 , 541.5)
*       88 = UAC118/U225/VDD (-2997.5 , 586.5)
*       88 = UAC118/U224/Vdd (-3033.5 , 587.5)
*       88 = UAC118/U220/VDD (-2943.5 , 539)
*       88 = UAC118/U232/Vdd (-2970.5 , 542.5)
*       88 = UAC118/U229/VDD (-2913.5 , 586.5)
*       88 = UAC118/U226/Vdd (-2949.5 , 587.5)
*       88 = UAC118/U230/Vdd (-2865.5 , 587.5)
*       88 = UAC118/U222/VDD (-3026.5 , 632)
*       88 = UAC118/U227/VDD (-2905 , 630.5)
*       88 = UAC118/U223/Vdd (-2978.5 , 633)
*       88 = UAC118/U228/Vdd (-2886.5 , 633)
*       88 = UAC90/U262/VDD (-2601 , 633)
*       88 = UAC90/U219/VDD (-2637.5 , 632)
*       88 = UAC90/U222/VDD (-2565 , 629.5)
*       88 = UAC90/U206/VDD (-2434.5 , 629.5)
*       88 = UAC90/U220/VDD (-2466 , 632)
*       88 = UAC90/U245/Vdd (-2582.5 , 588.5)
*       88 = UAC90/U218/VDD (-2558.5 , 585.5)
*       88 = UAC90/U238/VDD (-2638 , 588)
*       88 = UAC90/U235/VDD (-2411.5 , 588)
*       88 = UAC90/U229/Vdd (-2448.5 , 588.5)
*       88 = UAC90/U254/Vdd (-2518.5 , 544.5)
*       88 = UAC90/U253/VDD (-2432.5 , 542.5)
*       88 = UAC90/U247/Vdd (-2404.5 , 544.5)
*       88 = UAC90/U246/Vdd (-2356.5 , 544.5)
*       88 = UAC90/U236/VDD (-2367 , 588)
*       88 = UAC88/U262/VDD (-2230.5 , 633)
*       88 = UAC88/U222/VDD (-2194.5 , 629.5)
*       88 = UAC88/U219/VDD (-2267 , 632)
*       88 = UAC88/U220/VDD (-2095.5 , 632)
*       88 = UAC88/U206/VDD (-2064 , 629.5)
*       88 = UAC88/U254/Vdd (-2148 , 544.5)
*       88 = UAC88/U253/VDD (-2062 , 542.5)
*       88 = UAC88/U247/Vdd (-2034 , 544.5)
*       88 = UAC88/U245/Vdd (-2212 , 588.5)
*       88 = UAC88/U238/VDD (-2267.5 , 588)
*       88 = UAC88/U218/VDD (-2188 , 585.5)
*       88 = UAC88/U236/VDD (-1996.5 , 588)
*       88 = UAC88/U235/VDD (-2041 , 588)
*       88 = UAC88/U229/Vdd (-2078 , 588.5)
*       88 = UAC88/U246/Vdd (-1986 , 544.5)
*       88 = UAC87/U219/VDD (-1903 , 632)
*       88 = UAC87/U262/VDD (-1866.5 , 633)
*       88 = UAC87/U222/VDD (-1830.5 , 629.5)
*       88 = UAC87/U206/VDD (-1700 , 629.5)
*       88 = UAC87/U220/VDD (-1731.5 , 632)
*       88 = UAC85/U262/VDD (-1498.5 , 633)
*       88 = UAC85/U219/VDD (-1535 , 632)
*       88 = UAC85/U222/VDD (-1462.5 , 629.5)
*       88 = UAC85/U206/VDD (-1332 , 629.5)
*       88 = UAC85/U220/VDD (-1363.5 , 632)
*       88 = UAC85/U238/VDD (-1535.5 , 588)
*       88 = UAC85/U245/Vdd (-1480 , 588.5)
*       88 = UAC85/U218/VDD (-1456 , 585.5)
*       88 = UAC85/U235/VDD (-1309 , 588)
*       88 = UAC85/U229/Vdd (-1346 , 588.5)
*       88 = UAC85/U254/Vdd (-1416 , 544.5)
*       88 = UAC85/U253/VDD (-1330 , 542.5)
*       88 = UAC85/U247/Vdd (-1302 , 544.5)
*       88 = UAC85/U246/Vdd (-1254 , 544.5)
*       88 = UAC85/U236/VDD (-1264.5 , 588)
*       88 = UAC55/U262/VDD (-1127 , 633)
*       88 = UAC55/U219/VDD (-1163.5 , 632)
*       88 = UAC55/U222/VDD (-1091 , 629.5)
*       88 = UAC55/U220/VDD (-992 , 632)
*       88 = UAC55/U206/VDD (-960.5 , 629.5)
*       88 = UAC55/U246/Vdd (-882.5 , 544.5)
*       88 = UAC55/U254/Vdd (-1044.5 , 544.5)
*       88 = UAC55/U253/VDD (-958.5 , 542.5)
*       88 = UAC55/U247/Vdd (-930.5 , 544.5)
*       88 = UAC55/U245/Vdd (-1108.5 , 588.5)
*       88 = UAC55/U238/VDD (-1164 , 588)
*       88 = UAC55/U218/VDD (-1084.5 , 585.5)
*       88 = UAC55/U236/VDD (-893 , 588)
*       88 = UAC55/U235/VDD (-937.5 , 588)
*       88 = UAC55/U229/Vdd (-974.5 , 588.5)
*       88 = UAC56/U219/VDD (-800 , 632)
*       88 = UAC56/U262/VDD (-763.5 , 633)
*       88 = UAC56/U222/VDD (-727.5 , 629.5)
*       88 = UAC56/U206/VDD (-597 , 629.5)
*       88 = UAC56/U220/VDD (-628.5 , 632)
*       88 = UAC56/U254/Vdd (-681 , 544.5)
*       88 = UAC56/U253/VDD (-595 , 542.5)
*       88 = UAC56/U238/VDD (-800.5 , 588)
*       88 = UAC56/U245/Vdd (-745 , 588.5)
*       88 = UAC56/U218/VDD (-721 , 585.5)
*       88 = UAC56/U229/Vdd (-611 , 588.5)